[OPTIONS]
FLOW_UNITS           CFS
INFILTRATION         HORTON
FLOW_ROUTING         DYNWAVE
START_DATE           01/01/2026
START_TIME           00:00:00
END_DATE             01/02/2026
END_TIME             6:00:00
REPORT_STEP          00:05:00
WET_STEP             00:01:00
DRY_STEP             00:05:00
ROUTING_STEP         0:00:15
ALLOW_PONDING        YES

[EVAPORATION]
CONSTANT             0.0

[RAINGAGES]
RG1 INTENSITY 0:06 1.0 TIMESERIES TS1

[SUBCATCHMENTS]
S1 RG1 OUT1 339.59 5.0 3846.1 1.0 0

[SUBAREAS]
S1 0.015 0.10 0.05 0.05 25 OUTLET

[INFILTRATION]
S1 3.0 0.1 4.0 7 0

[OUTFALLS]
OUT1 0 FREE NO

[TIMESERIES]
TS1  0:00  0.0467
TS1  0:06  0.0467
TS1  0:12  0.0467
TS1  0:18  0.0467
TS1  0:24  0.0467
TS1  0:30  0.0468
TS1  0:36  0.0468
TS1  0:42  0.0467
TS1  0:48  0.0467
TS1  0:54  0.0468
TS1  1:00  0.0467
TS1  1:06  0.0468
TS1  1:12  0.0467
TS1  1:18  0.0468
TS1  1:24  0.0467
TS1  1:30  0.0467
TS1  1:36  0.0467
TS1  1:42  0.0467
TS1  1:48  0.0468
TS1  1:54  0.0467
TS1  2:00  0.0553
TS1  2:06  0.0553
TS1  2:12  0.0553
TS1  2:18  0.0553
TS1  2:24  0.0552
TS1  2:30  0.0553
TS1  2:36  0.0553
TS1  2:42  0.0553
TS1  2:48  0.0553
TS1  2:54  0.0552
TS1  3:00  0.0553
TS1  3:06  0.0552
TS1  3:12  0.0553
TS1  3:18  0.0553
TS1  3:24  0.0552
TS1  3:30  0.0552
TS1  3:36  0.0553
TS1  3:42  0.0553
TS1  3:48  0.0552
TS1  3:54  0.0553
TS1  4:00  0.0638
TS1  4:06  0.0637
TS1  4:12  0.0637
TS1  4:18  0.0638
TS1  4:24  0.0637
TS1  4:30  0.0638
TS1  4:36  0.0637
TS1  4:42  0.0638
TS1  4:48  0.0637
TS1  4:54  0.0637
TS1  5:00  0.0723
TS1  5:06  0.0722
TS1  5:12  0.0723
TS1  5:18  0.0722
TS1  5:24  0.0722
TS1  5:30  0.0723
TS1  5:36  0.0722
TS1  5:42  0.0723
TS1  5:48  0.0722
TS1  5:54  0.0722
TS1  6:00  0.0765
TS1  6:06  0.0765
TS1  6:12  0.0765
TS1  6:18  0.0765
TS1  6:24  0.0765
TS1  6:30  0.0765
TS1  6:36  0.0765
TS1  6:42  0.0765
TS1  6:48  0.0765
TS1  6:54  0.0765
TS1  7:00  0.0935
TS1  7:06  0.0935
TS1  7:12  0.0935
TS1  7:18  0.0935
TS1  7:24  0.0935
TS1  7:30  0.0935
TS1  7:36  0.0935
TS1  7:42  0.0935
TS1  7:48  0.0935
TS1  7:54  0.0935
TS1  8:00  0.1147
TS1  8:06  0.1148
TS1  8:12  0.1148
TS1  8:18  0.1147
TS1  8:24  0.1148
TS1  8:30  0.1147
TS1  8:36  0.1148
TS1  8:42  0.1147
TS1  8:48  0.1148
TS1  8:54  0.1147
TS1  9:00  0.1445
TS1  9:06  0.1445
TS1  9:12  0.1445
TS1  9:18  0.1445
TS1  9:24  0.1445
TS1  9:30  0.1445
TS1  9:36  0.1445
TS1  9:42  0.1445
TS1  9:48  0.1445
TS1  9:54  0.1445
TS1  10:00  0.2295
TS1  10:06  0.2295
TS1  10:12  0.2295
TS1  10:18  0.2295
TS1  10:24  0.2295
TS1  10:30  0.2295
TS1  10:36  0.2295
TS1  10:42  0.2295
TS1  10:48  0.2295
TS1  10:54  0.2295
TS1  11:00  1.8190
TS1  11:06  1.8190
TS1  11:12  1.8190
TS1  11:18  1.8190
TS1  11:24  1.8190
TS1  11:30  1.8190
TS1  11:36  1.8190
TS1  11:42  1.8190
TS1  11:48  1.8190
TS1  11:54  1.8190
TS1  12:00  0.4633
TS1  12:06  0.4633
TS1  12:12  0.4632
TS1  12:18  0.4633
TS1  12:24  0.4632
TS1  12:30  0.4633
TS1  12:36  0.4632
TS1  12:42  0.4633
TS1  12:48  0.4632
TS1  12:54  0.4633
TS1  13:00  0.2040
TS1  13:06  0.2040
TS1  13:12  0.2040
TS1  13:18  0.2040
TS1  13:24  0.2040
TS1  13:30  0.2040
TS1  13:36  0.2040
TS1  13:42  0.2040
TS1  13:48  0.2040
TS1  13:54  0.2040
TS1  14:00  0.1275
TS1  14:06  0.1275
TS1  14:12  0.1275
TS1  14:18  0.1275
TS1  14:24  0.1275
TS1  14:30  0.1275
TS1  14:36  0.1275
TS1  14:42  0.1275
TS1  14:48  0.1275
TS1  14:54  0.1275
TS1  15:00  0.1275
TS1  15:06  0.1275
TS1  15:12  0.1275
TS1  15:18  0.1275
TS1  15:24  0.1275
TS1  15:30  0.1275
TS1  15:36  0.1275
TS1  15:42  0.1275
TS1  15:48  0.1275
TS1  15:54  0.1275
TS1  16:00  0.0765
TS1  16:06  0.0765
TS1  16:12  0.0765
TS1  16:18  0.0765
TS1  16:24  0.0765
TS1  16:30  0.0765
TS1  16:36  0.0765
TS1  16:42  0.0765
TS1  16:48  0.0765
TS1  16:54  0.0765
TS1  17:00  0.0595
TS1  17:06  0.0595
TS1  17:12  0.0595
TS1  17:18  0.0595
TS1  17:24  0.0595
TS1  17:30  0.0595
TS1  17:36  0.0595
TS1  17:42  0.0595
TS1  17:48  0.0595
TS1  17:54  0.0595
TS1  18:00  0.0595
TS1  18:06  0.0595
TS1  18:12  0.0595
TS1  18:18  0.0595
TS1  18:24  0.0595
TS1  18:30  0.0595
TS1  18:36  0.0595
TS1  18:42  0.0595
TS1  18:48  0.0595
TS1  18:54  0.0595
TS1  19:00  0.0510
TS1  19:06  0.0510
TS1  19:12  0.0510
TS1  19:18  0.0510
TS1  19:24  0.0510
TS1  19:30  0.0510
TS1  19:36  0.0510
TS1  19:42  0.0510
TS1  19:48  0.0510
TS1  19:54  0.0510
TS1  20:00  0.0425
TS1  20:06  0.0425
TS1  20:12  0.0425
TS1  20:18  0.0425
TS1  20:24  0.0425
TS1  20:30  0.0425
TS1  20:36  0.0425
TS1  20:42  0.0425
TS1  20:48  0.0425
TS1  20:54  0.0425
TS1  21:00  0.0425
TS1  21:06  0.0425
TS1  21:12  0.0425
TS1  21:18  0.0425
TS1  21:24  0.0425
TS1  21:30  0.0425
TS1  21:36  0.0425
TS1  21:42  0.0425
TS1  21:48  0.0425
TS1  21:54  0.0425
TS1  22:00  0.0680
TS1  22:06  0.0680
TS1  22:12  0.0680
TS1  22:18  0.0680
TS1  22:24  0.0680
TS1  22:30  0.0680
TS1  22:36  0.0680
TS1  22:42  0.0680
TS1  22:48  0.0680
TS1  22:54  0.0680
TS1  23:00  0.1105
TS1  23:06  0.1105
TS1  23:12  0.1105
TS1  23:18  0.1105
TS1  23:24  0.1105
TS1  23:30  0.1105
TS1  23:36  0.1105
TS1  23:42  0.1105
TS1  23:48  0.1105
TS1  23:54  0.1105

[REPORT]
INPUT NO
NODES ALL
LINKS ALL
